<?xml version="1.0" encoding="UTF-8"?>

<configuration xmlns:xsi="http://www.w3.org/2001/XMLSchema-instance" xsi:noNamespaceSchemaLocation="http://sumo-sim.org/xsd/sumoConfiguration.xsd">

    <input>
        <net-file value="../../LuSTScenario/scenario/lust.net.xml"/>
    </input>

    <time>
        <begin value="0"/>
        <step-length value="1"/>
    </time>

</configuration>
